22

F 4.145458 0.212713 0.000720
C 2.784579 0.142939 -0.000102
C 2.051867 1.311685 -0.000563
C 0.646386 1.265261 -0.000492
N 0.000121 -0.000155 -0.000197
C -0.139428 2.431059 -0.000764
C -1.516200 2.339895 -0.000389
F -2.256780 3.483809 0.000782
C -2.162162 1.121111 0.000083
C -1.419052 -0.072944 -0.000138
C -2.035591 -1.336376 0.000395
C -1.268248 -2.482982 -0.000402
F -1.888911 -3.696084 0.000254
C 0.110140 -2.432889 -0.000664
C 0.772589 -1.192302 0.000042
C 2.175275 -1.094893 0.000402
H 2.540266 2.272849 -0.000355
H 0.352823 3.390228 -0.000269
H -3.238723 1.063376 0.000127
H -3.112331 -1.389628 0.001442
H 0.698814 -3.336071 -0.000876
H 2.759476 -2.000986 0.001050
