31

C 2.387026 3.625042 0.000054
C 1.543537 2.365872 -0.000043
C 0.163427 2.432146 -0.000067
C -0.642802 1.263853 -0.000051
C -2.043147 1.317652 -0.000022
C -2.820704 0.153787 0.000037
C -4.332934 0.254704 -0.000014
C -2.188052 -1.074531 0.000058
C -0.773123 -1.188575 0.000025
N 0.000016 -0.000001 -0.000031
C -0.119556 -2.428201 0.000071
C 1.277196 -2.519651 0.000073
C 1.945820 -3.879785 -0.000095
C 2.024649 -1.357601 0.000080
C 1.415984 -0.075247 -0.000036
C 2.162730 1.110569 -0.000002
H 1.759036 4.520113 -0.000903
H 3.033033 3.651134 -0.885616
H 3.031508 3.651973 0.886818
H -0.352190 3.382840 -0.000094
H -2.504287 2.295970 -0.000027
H -4.794094 -0.736684 0.001074
H -4.678568 0.799272 -0.886816
H -4.678509 0.801207 0.885609
H -2.753588 -1.996401 0.000099
H -0.736258 -3.316703 0.000092
H 3.034979 -3.783595 0.001225
H 1.647134 -4.451158 -0.887089
H 1.645058 -4.452460 0.885339
H 3.105781 -1.386441 0.000054
H 3.240546 1.020741 0.000043
