38

F 1.176153 -3.345110 -0.234885
C 1.221474 -1.984936 -0.134130
C 2.482052 -1.389553 -0.190516
B 2.527363 0.092980 0.023885
C 1.254389 0.887707 0.197996
C -0.000009 0.219723 -0.000002
C 0.000003 -1.275740 -0.000015
C -1.221448 -1.984939 0.134037
F -1.176138 -3.345119 0.234746
C -2.482035 -1.389553 0.190494
B -2.527367 0.092996 -0.023823
C -1.254387 0.887699 -0.197966
C -1.420010 2.240922 -0.556310
C -2.693067 2.824241 -0.623866
F -2.755181 4.150918 -0.980178
C -3.889588 2.154821 -0.387101
C -3.877592 0.773128 -0.092878
C -5.018096 -0.030689 0.101421
C -4.898986 -1.408515 0.315149
F -6.056847 -2.129184 0.484626
C -3.689611 -2.097608 0.344608
C 1.420003 2.240883 0.556404
C 2.693058 2.824236 0.623943
F 2.755093 4.150996 0.979957
C 3.889563 2.154840 0.387151
C 3.877580 0.773139 0.092917
C 5.018092 -0.030665 -0.101352
C 4.899007 -1.408506 -0.315077
F 6.056892 -2.129124 -0.484579
C 3.689652 -2.097614 -0.344558
H -0.589442 2.866124 -0.861353
H -4.811908 2.720205 -0.481611
H -6.022561 0.382577 0.083673
H -3.708472 -3.173099 0.476632
H 0.589449 2.866050 0.861556
H 4.811874 2.720247 0.481646
H 6.022557 0.382588 -0.083426
H 3.708515 -3.173087 -0.476699
