38

F -1.290585 -3.352156 -0.188784
C -1.222099 -1.979718 -0.091809
C -2.439262 -1.313940 -0.146353
N -2.464377 0.086773 0.049582
C -1.241815 0.805257 0.212539
C -0.000038 0.118615 -0.000145
C -0.000091 -1.329562 -0.000551
C 1.222079 -1.979773 0.090517
F 1.290256 -3.352307 0.187034
C 2.439033 -1.314121 0.145988
N 2.464435 0.086668 -0.049598
C 1.242034 0.805246 -0.212800
C 1.340873 2.137947 -0.621628
C 2.571123 2.776842 -0.705829
F 2.598451 4.083541 -1.092947
C 3.741972 2.129331 -0.410068
C 3.717374 0.751170 -0.111914
C 4.892110 0.023397 0.099696
C 4.835102 -1.340454 0.345995
F 5.996138 -2.019875 0.558642
C 3.639017 -2.015362 0.361613
C -1.340571 2.138199 0.621164
C -2.570635 2.777101 0.705527
F -2.598043 4.083853 1.092393
C -3.741728 2.129469 0.410297
C -3.717205 0.751416 0.112417
C -4.892275 0.023578 -0.098534
C -4.835480 -1.340131 -0.344687
F -5.996482 -2.019774 -0.556686
C -3.639246 -2.015080 -0.361186
H 0.451846 2.671459 -0.909940
H 4.691285 2.639691 -0.441281
H 5.839603 0.535247 0.045712
H 3.584446 -3.077073 0.530511
H -0.451406 2.671541 0.909392
H -4.690955 2.639970 0.441741
H -5.839580 0.535726 -0.044103
H -3.584882 -3.076768 -0.530272
