22

F -1.510285 3.424010 0.000262
C -1.351001 2.071095 0.000246
C -0.067478 1.504166 0.000154
B 0.000004 -0.000012 -0.000061
C 1.336400 -0.693657 0.000008
C 1.312013 -2.096583 -0.000198
F 2.472582 -2.809628 0.000613
C 0.127390 -2.828672 -0.000320
C -1.118143 -2.205561 -0.000467
F -2.210165 -3.019975 -0.000111
C -1.268913 -0.810526 -0.000228
C -2.471696 -0.087927 0.000128
F -3.669489 -0.736488 -0.000064
C -2.513387 1.304023 0.000387
C 2.469139 0.134446 0.000218
F 3.720457 -0.404025 -0.000022
C 2.386007 1.524650 -0.000082
C 1.159690 2.184519 0.000009
F 1.196881 3.546130 -0.000553
H 0.175141 -3.906868 0.000081
H -3.471003 1.801796 0.000445
H 3.295889 2.105086 -0.000494
