35

C -3.475448 0.540124 -0.000054
N -2.163478 -0.005380 -0.000041
C -4.577124 -0.331767 -0.000088
C -4.395579 -1.711917 0.000068
C -3.125023 -2.248263 0.000174
C -1.976997 -1.412497 0.000039
C -0.680031 -1.930882 -0.000008
C 0.455835 -1.109006 0.000028
C 0.264793 0.286802 0.000015
C 1.439554 1.242247 0.000183
N 2.774665 0.555657 0.000166
C 3.885422 1.369886 0.000214
C 5.154509 0.877783 0.000066
C 5.326414 -0.544612 -0.000183
C 4.237447 -1.361149 -0.000240
C 2.889371 -0.844126 -0.000018
C 1.777210 -1.650652 0.000021
C -1.025372 0.850381 -0.000081
C -1.240302 2.250499 -0.000153
C -2.525688 2.777783 -0.000101
C -3.628999 1.947370 -0.000016
H -5.562649 0.111308 -0.000207
H -5.258828 -2.367652 0.000105
H -2.956094 -3.315765 0.000335
H -0.573135 -3.006913 -0.000082
H 1.406750 1.894718 0.887820
H 1.406862 1.894939 -0.887292
H 3.677285 2.432361 0.000372
H 6.001084 1.548450 0.000086
H 6.325409 -0.963550 -0.000326
H 4.340632 -2.438463 -0.000496
H 1.916292 -2.722833 -0.000049
H -0.383116 2.904252 -0.000286
H -2.661322 3.853622 -0.000126
H -4.637435 2.335570 0.000085
