22

C 1.372184 -0.367024 0.000109
N 0.000007 -0.000009 0.000065
C 1.711270 -1.737858 -0.000407
C 0.728557 -2.714459 -0.000150
C -0.611169 -2.361140 0.000259
C -1.003943 -1.004813 0.000026
C -2.360636 -0.613069 -0.000150
C -2.715151 0.726264 0.000067
C -1.739262 1.709884 0.000315
C -0.368246 1.371832 -0.000017
C 0.649407 2.350900 -0.000535
C 1.986548 1.988182 0.000055
C 2.350416 0.651306 0.000552
H 2.762520 -1.987576 -0.000984
H 1.009531 -3.761352 -0.000374
H -1.396109 -3.103663 0.000692
H -3.102505 -1.398653 -0.000426
H -3.762260 1.006424 -0.000136
H -1.989758 2.760936 0.000133
H 0.340086 3.386176 -0.001226
H 2.752667 2.754991 -0.000040
H 3.385922 0.342744 0.001160
